Lista10/IEEE14bus.txt
( TITULO DO CASO
TITU
**** Sistema IEEE de 14 barras ****     ieee14_CEEE
(DADOS ESPECÍFICOS P/ ESTIMAÇÃO DE ESTADOS:
(============================================================
(   0    |    1    |    2    |    3    |    4    |    5    |
(23456789012345678901234567890123456789012345678901234567890
( NB)( NL)(NIP)(NIQ)(NFP)(NFQ)(NMV)(PIP)(PIQ)(PFP)(PFQ)(PMV)(UTR)(PMU)     descri��o: 0-n�o tem medida nem pseudo; 1-tem medida; 2-tem pseudo; 3-tem medida e pseudo
(  14   20   14   14   40   40   14    0    0    0    0    0   14   14                               
DBAR
( DADOS DE BARRAS CA PARA FLUXO DE CARGA E ESTIMA��O DE ESTADOS (A PARTIR DA COLUNA 80)
(===============================================================================================================================================
(   0    |    1    |    2    |    3    |    4    |    5    |    6    |    7    |    8    |    9    |   10    |   11    |   12    |   13    |                                                       
(234567890123456789012345678901234567890123456789012345678901234567890123456789012345678901234567890123456789012345678901234567890112345678901
(No) O TB(   nome   )G( V)( A)( Pg)( Qg)( Qn)( Qm)( Bc)( Pl)( Ql)( Sh)(A(Vc)|||TP(  P  )(desP)TQ(  Q  )(desQ)TV(  V  )(desV)(UTR)( T )(PMU)  
   1   2  Bus_1  HV1  1000  0                            0.0  0.0      1      ( 12.33838.01550 1-.16604.00110 11061.17.00707    1    0    1
   2   0  Bus_2  HV1  1000     40.0      -40. 50.       21.7 12.7      1      ( 1.183262.00122 1.308738.00206 0                 2    0    2
   3   0  Bus_3  HV1  1000      0.0        0. 40.       94.2 19.0      1      ( 1-.95447.00629 1.061356.00041 0                 3    0    3
   4   0  Bus_4  HV1  1000                              47.8 -3.9      1      ( 1-.47691.00317 1.039123.00026 0                 4    0    4
   5   0  Bus_5  HV1  1000                               7.6  1.6      1      ( 0              0              0                 5    0    5
   6   0  Bus_6  LV1  1000      0.0      -6.0 24.       11.2  7.5      1      ( 1-.11238.00075 1.051279.00034 0                 6    0    6
   7   0  Bus_7  LV1  1000                               0.0  0.0      1      ( 1-.00021.00005 1.000186.00005 0                 7    0    7
   8   0  Bus_8  TV1  1000      0.0      -6.0 24.        0.0  0.0      1      ( 1-.00007.00005 1.176648.00118 0                 8    0    8
   9   0  Bus_9  LV1  1000                              29.5 16.6 19.0 1      ( 1-.29767.00198 1-.16652.00111 0                 9    0    9
  10   0  Bus_10 LV1  1000                               9.0  5.8      1      ( 1-.09013.00060 1-.05754.00039 0                10    0   10
  11   0  Bus_11 LV1  1000                               3.5  1.8      1      ( 0              0              0                11    0   11
  12   0  Bus_12 LV1  1000                               6.1  1.6      1      ( 1-.06090.00041 1-.01617.00011 0                12    0   12
  13   0  Bus_13 LV1  1000                              13.5  5.8      1      ( 0              0              0                13    0   13
  14   0  Bus_14 LV1  1000                              14.9  5.0      1      ( 1-.14738.00099 1-.04982.00033 0                14    0   14
9999
DLIN
( DADOS DE LINHAS CA PARA FLUXO DE CARGA E ESTIMA��O DE ESTADOS (A PARTIR DA COLUNA 80)
(=============================================================================================================================================================================================
(   0    |    1    |    2    |    3    |    4    |    5    |    6    |    7    |    8    |    9    |   10    |   11    |   12    |   13    |   14    |   15    |   16    |   17    |   18    |                                                        
(234567890123456789012345678901234567890123456789012345678901234567890123456789012345678901234567890123456789012345678901234567890123456789012345678901234567890123456789012345678901234567890
(De) O  (Pa)NcEP ( R% )( X% )(MVAR)(Tap)(Tmn)(Tmx)(Phs)( Bc)(Cn)(Ce)     (k=>m)TP(  P  )(desP)TQ(  Q  )(desQ)(m=>k)TP(  P  )(desP)TQ(  Q  )(desQ)(k=>m)TC( PMU )(desC)(m=>k)TC( PMU )(desC)
   1       2 1    1.938 5.917  5.28                                           ( 11.58994.01046 1-.20383.00136       0              0
   1       5 1    5.40322.304  4.92                                           ( 1.755920.00504 1.038764.00026       0              0
   2       3 1    4.69919.797  4.38                                           ( 0              0                    1-.71753.00473 1.016041.00011
   2       4 1    5.81117.632  3.40                                           ( 0              0                    0              0
   2       5 1    5.69517.388  3.46                                           ( 0              0                    1-.40565.00271 1-.02141.00014
   3       4 1    6.70117.103  1.28                                           ( 0              0                    1.237646.00158 1-.04855.00032
   4       5 1    1.335 4.211                                                 ( 1-.60754.00408 1.158376.00106       0              0
   4       7 1         20.912      0.978                                      ( 0              0                    0              0
   4       9 1         55.618      0.969                                      ( 0              0                    1-.16275.00107 1.017165.00011
   5       6 1         25.202      0.932                                      ( 0              0                    1-.44008.00294 1-.08179.00054
   6      11 1    9.49819.890                                                 ( 1.073416.00049 1.035256.00024       0              0
   6      12 1   12.29125.581                                                 ( 1.078952.00052 1.025101.00017       1-.07670.00051 1-.02386.00016     
   6      13 1    6.61513.027                                                 ( 1.178391.00118 1.071756.00048       0              0
   7       8 1         17.615                                                 ( 1.000068.00005 1-.17096.00114       1-.00007.00005 1.174521.00118     
   7       9 1         11.001                                                 ( 0              0                    1-.28209.00187 1-.04972.00034
   9      10 1    3.181 8.450                                                 ( 0              0                    1-.05174.00035 1-.04201.00028
   9      14 1   12.71127.038                                                 ( 0              0                    0              0
  10      11 1    8.20519.207                                                 ( 1-.03822.00025 1-.01592.00011       0              0
  12      13 1   22.09219.988                                                 ( 1.016086.00011 1.007528.00005       0              0
  13      14 1   17.09334.802                                                 ( 0              0                    1-.05539.00037 1-.01597.00011
9999
FIM
